&clm_inparm 
ndepmapalgo = 'nn'
popdensmapalgo = 'nn'
stream_year_first_popdens = 2000
stream_year_last_popdens = 2000
lightngmapalgo = 'nn'
finidat = '/cluster/work/users/huit/norway_plot4268/run/norway_plot4268.clm2.r.1591-01-06-00000_initial.nc'

/ 
