&clm_inparm
 albice = 0.60,0.40
 co2_ppmv = 367.0
 co2_type = 'constant'
 create_crop_landunit = .false.
 dtime = 1800
 fatmlndfrc = '/cluster/work/users/huit/inputdata/share/domains/domain.clm/domain.lnd.1x1_norway_622_navy.nc'
 finidat = '/work/users/huit/norway_plot622/run/norway_plot622.clm2.r.1591-01-06-00000_initial.nc'
 fpftcon = '/cluster/work/users/huit/inputdata/lnd/clm2/pftdata/pft-physiology.c130503.nc'
 fsnowaging = '/cluster/work/users/huit/inputdata/lnd/clm2/snicardata/snicar_drdt_bst_fit_60_c070416.nc'
 fsnowoptics = '/cluster/work/users/huit/inputdata/lnd/clm2/snicardata/snicar_optics_5bnd_c090915.nc'
 fsurdat = '/cluster/work/users/huit/inputdata/lnd/clm2/surfdata_map/surfdata_1x1_norway_622_simyr2000.nc'
 maxpatch_glcmec = 0
 more_vertlayers = .false.
 nsegspc = 20
 spinup_state = 0
 urban_hac = 'ON'
 urban_traffic = .false.
/
&ndepdyn_nml
 ndepmapalgo = 'nn'
 stream_fldfilename_ndep = '/cluster/work/users/huit/inputdata/lnd/clm2/ndepdata/fndep_clm_hist_simyr1849-2006_1.9x2.5_c100428.nc'
 stream_year_first_ndep = 2000
 stream_year_last_ndep = 2000
/
&popd_streams
 popdensmapalgo = 'nn'
 stream_fldfilename_popdens = '/cluster/work/users/huit/inputdata/lnd/clm2/firedata/clmforc.Li_2012_hdm_0.5x0.5_AVHRR_simyr1850-2010_c130401.nc'
 stream_year_first_popdens = 2000
 stream_year_last_popdens = 2000
/
&light_streams
 lightngmapalgo = 'nn'
 stream_fldfilename_lightng = '/cluster/work/users/huit/inputdata/atm/datm7/NASA_LIS/clmforc.Li_2012_climo1995-2011.T62.lnfm_c130327.nc'
 stream_year_first_lightng = 0001
 stream_year_last_lightng = 0001
/
&clm_hydrology1_inparm
/
&clm_soilhydrology_inparm
/
&ch4par_in
 fin_use_fsat = .true.
/
#!--------------------------------------------------------------------------------------------------------------------------
#! lnd_in:: Comment:
#! This namelist was created using the following command-line:
#!     /cluster/home/huit/noresm/models/lnd/clm/bld/CLM build-namelist -infile /cluster/home/huit/noresm/cases/norway_plot622_swe_tmin_bioclim15/Buildconf/clmconf/cesm_namelist -csmdata /cluster/work/users/huit/inputdata -inputdata /cluster/home/huit/noresm/cases/norway_plot622_swe_tmin_bioclim15/Buildconf/clm.input_data_list -ignore_ic_year -namelist &clm_inparm start_ymd = 15910101  / -use_case 2000_control -res 1x1_norway_622 -clm_usr_name 1x1_norway_622 -clm_start_type default -l_ncpl 48 -lnd_frac /cluster/work/users/huit/inputdata/share/domains/domain.clm/domain.lnd.1x1_norway_622_navy.nc -glc_nec 0 -co2_ppmv 367.0 -co2_type constant -config /cluster/home/huit/noresm/cases/norway_plot622_swe_tmin_bioclim15/Buildconf/clmconf/config_cache.xml
#! For help on options use: /cluster/home/huit/noresm/models/lnd/clm/bld/CLM build-namelist -help
#!--------------------------------------------------------------------------------------------------------------------------
